; Filename: /Users/nikola/pyrecodes/Example 5/water_distribution_network/waterNetwork.inp
; WNTR: 1.1.0.1.2
; Created: 2025-01-30 10:59:48
[TITLE]

[JUNCTIONS]
;ID                      Elevation       Demand Pattern                 
 node_1                             0    7.1840960658                            ;
 node_2                             0    4.2990265755                            ;
 node_3                             0    18.260578629                            ;
 node_4                             0    18.260578629                            ;
 node_5                             0               0                            ;
 node_6                             0    15.297239114                            ;
 node_7                             0    15.297239114                            ;
 node_8                             0     10.87625692                            ;
 node_9                             0     10.87625692                            ;
 node_10                            0    11.020419383                            ;
 node_11                            0    11.020419383                            ;
 node_12                            0    13.978419547                            ;
 node_13                            0               0                            ;
 node_14                            0               0                            ;
 node_15                            0    15.297239114                            ;
 node_16                            0               0                            ;
 node_17                            0               0                            ;
 node_18                            0    15.297239114                            ;
 node_19                            0    3.2465677873                            ;
 node_20                            0    8.2693190501                            ;
 node_21                            0    8.2693190501                            ;
 node_22                            0     11.43688872                            ;
 node_23                            0     11.43688872                            ;
 node_24                            0               0                            ;
 node_25                            0    8.2693190501                            ;
 node_26                            0               0                            ;
 node_27                            0               0                            ;
 node_28                            0    8.2693190501                            ;
 node_29                            0               0                            ;
 node_30                            0               0                            ;
 node_31                            0               0                            ;
 node_32                            0    18.545699944                            ;
 node_33                            0    3.3327404234                            ;
 node_34                            0     27.86340046                            ;
 node_35                            0               0                            ;
 node_36                            0    15.297239114                            ;
 node_37                            0               0                            ;
 node_38                            0               0                            ;
 node_39                            0               0                            ;
 node_40                            0    10.001671312                            ;
 node_41                            0    54.530786414                            ;
 node_42                            0    33.114651654                            ;
 node_43                            0    25.071454096                            ;
 node_44                            0               0                            ;
 node_45                            0               0                            ;
 node_46                            0               0                            ;
 node_47                            0               0                            ;
 node_48                            0               0                            ;
 node_49                            0               0                            ;
 node_50                            0               0                            ;
 node_51                            0     10.87625692                            ;
 node_52                            0    18.260578629                            ;
 node_53                            0               0                            ;
 node_54                            0     10.87625692                            ;
 node_55                            0               0                            ;
 node_56                            0     10.87625692                            ;
 node_57                            0               0                            ;
 node_58                            0    1.3322131926                            ;
 node_59                            0               0                            ;
 node_60                            0    3.3922673359                            ;
 node_61                            0      18.7811653                            ;
 node_62                            0               0                            ;
 node_63                            0    14.426924987                            ;
 node_64                            0    14.426924987                            ;
 node_65                            0               0                            ;
 node_66                            0    1.3322131926                            ;
 node_67                            0               0                            ;
 node_68                            0    1.3322131926                            ;
 node_69                            0               0                            ;
 node_70                            0               0                            ;
 node_71                            0    33.114651654                            ;
 node_72                            0               0                            ;
 node_73                            0               0                            ;
 node_74                            0               0                            ;
 node_75                            0    3.3922673359                            ;
 node_76                            0               0                            ;
 node_77                            0    3.3922673359                            ;
 node_78                            0    18.433573584                            ;
 node_79                            0               0                            ;
 node_80                            0               0                            ;
 node_81                            0    13.699802531                            ;
 node_82                            0               0                            ;
 node_83                            0     36.60925654                            ;
 node_84                            0    22.290720368                            ;
 node_85                            0               0                            ;
 node_86                            0               0                            ;
 node_87                            0    27.438922097                            ;
 node_88                            0    27.438922097                            ;
 node_89                            0    1.3322131926                            ;
 node_90                            0               0                            ;
 node_91                            0    3.2465677873                            ;
 node_92                            0               0                            ;
 node_93                            0     38.23508876                            ;
 node_94                            0               0                            ;
 node_95                            0               0                            ;
 node_96                            0               0                            ;
 node_97                            0               0                            ;
 node_98                            0               0                            ;
 node_99                            0               0                            ;
 node_100                           0               0                            ;
 node_101                           0               0                            ;
 node_102                           0    19.024105747                            ;
 node_103                           0     20.49109229                            ;
 node_104                           0               0                            ;
 node_105                           0               0                            ;
 node_106                           0               0                            ;
 node_107                           0    18.404741092                            ;
 node_108                           0               0                            ;
 node_109                           0               0                            ;
 node_110                           0    18.404741092                            ;
 node_111                           0     25.45268372                            ;
 node_112                           0               0                            ;
 node_113                           0    4.2990265755                            ;
 node_114                           0     28.70434816                            ;
 node_115                           0    11.573932049                            ;
 node_116                           0               0                            ;
 node_117                           0    11.573932049                            ;
 node_118                           0    16.661977096                            ;
 node_119                           0               0                            ;
 node_120                           0    3.2465677873                            ;
 node_121                           0               0                            ;
 node_122                           0    11.020419383                            ;
 node_123                           0               0                            ;
 node_124                           0               0                            ;
 node_125                           0               0                            ;
 node_126                           0               0                            ;
 node_127                           0               0                            ;
 node_128                           0    7.1840960658                            ;
 node_129                           0               0                            ;
 node_130                           0               0                            ;
 node_131                           0               0                            ;
 node_132                           0               0                            ;
 node_133                           0    13.169750647                            ;
 node_134                           0    13.169750647                            ;
 node_135                           0               0                            ;
 node_136                           0               0                            ;
 node_137                           0               0                            ;
 node_138                           0    1.3322131926                            ;
 node_139                           0               0                            ;
 node_140                           0               0                            ;
 node_141                           0    13.699802531                            ;
 node_142                           0               0                            ;
 node_143                           0     10.87625692                            ;
 node_144                           0     10.87625692                            ;
 node_145                           0    23.116717887                            ;
 node_146                           0     11.43688872                            ;
 node_147                           0    4.2990265755                            ;
 node_148                           0               0                            ;
 node_149                           0    17.753340333                            ;
 node_150                           0     10.87625692                            ;
 node_151                           0               0                            ;
 node_152                           0    13.169750647                            ;
 node_153                           0    17.753340333                            ;
 node_154                           0    13.169750647                            ;
 node_155                           0               0                            ;
 node_156                           0    7.1840960658                            ;
 node_157                           0               0                            ;
 node_158                           0     11.43688872                            ;
 node_159                           0               0                            ;
 node_160                           0               0                            ;
 node_161                           0               0                            ;
 node_162                           0     10.87625692                            ;
 node_163                           0               0                            ;
 node_164                           0               0                            ;
 node_165                           0    22.686900174                            ;
 node_166                           0               0                            ;
 node_167                           0               0                            ;
 node_168                           0               0                            ;
 node_169                           0               0                            ;
 node_170                           0               0                            ;
 node_171                           0               0                            ;
 node_172                           0    3.3922673359                            ;
 node_173                           0               0                            ;
 node_174                           0               0                            ;
 node_175                           0               0                            ;
 node_176                           0    11.779497042                            ;
 node_177                           0               0                            ;
 node_178                           0               0                            ;
 node_179                           0    1.3322131926                            ;
 node_180                           0               0                            ;
 node_181                           0    1.3322131926                            ;
 node_182                           0               0                            ;
 node_183                           0               0                            ;
 node_184                           0    1.3322131926                            ;
 node_185                           0               0                            ;
 node_186                           0               0                            ;
 node_187                           0               0                            ;
 node_188                           0               0                            ;
 node_189                           0               0                            ;
 node_190                           0               0                            ;
 node_191                           0               0                            ;
 node_192                           0    18.404741092                            ;
 node_193                           0               0                            ;
 node_194                           0               0                            ;
 node_195                           0    1.3322131926                            ;
 node_196                           0     11.43688872                            ;
 node_197                           0    8.2693190501                            ;
 node_198                           0               0                            ;
 node_199                           0    10.001671312                            ;
 node_200                           0               0                            ;
 node_201                           0               0                            ;
 node_202                           0               0                            ;
 node_203                           0    13.169750647                            ;
 node_204                           0               0                            ;
 node_205                           0               0                            ;
 node_206                           0    33.114651654                            ;
 node_207                           0               0                            ;
 node_208                           0    4.2990265755                            ;
 node_209                           0               0                            ;
 node_210                           0               0                            ;
 node_211                           0               0                            ;
 node_212                           0               0                            ;
 node_213                           0    11.020419383                            ;
 node_214                           0    11.020419383                            ;
 node_215                           0               0                            ;
 node_216                           0    21.772900451                            ;
 node_217                           0               0                            ;
 node_218                           0    7.1840960658                            ;
 node_219                           0     38.23508876                            ;
 node_220                           0               0                            ;
 node_221                           0               0                            ;
 node_222                           0               0                            ;
 node_223                           0               0                            ;
 node_224                           0               0                            ;
 node_225                           0               0                            ;
 node_226                           0               0                            ;
 node_227                           0    10.001671312                            ;
 node_228                           0               0                            ;
 node_229                           0    13.169750647                            ;
 node_230                           0    13.169750647                            ;
 node_231                           0    17.753340333                            ;
 node_232                           0               0                            ;
 node_233                           0    3.3922673359                            ;
 node_234                           0               0                            ;
 node_235                           0               0                            ;
 node_236                           0               0                            ;
 node_237                           0               0                            ;
 node_238                           0    11.573932049                            ;
 node_239                           0    11.573932049                            ;
 node_240                           0               0                            ;
 node_241                           0    1.3322131926                            ;
 node_242                           0    11.445513825                            ;
 node_243                           0               0                            ;
 node_244                           0      18.7811653                            ;
 node_245                           0      18.7811653                            ;
 node_246                           0               0                            ;
 node_247                           0    13.169750647                            ;
 node_248                           0               0                            ;
 node_249                           0               0                            ;
 node_250                           0    1.3322131926                            ;
 node_251                           0               0                            ;
 node_252                           0    1.3322131926                            ;
 node_253                           0               0                            ;
 node_254                           0    18.545699944                            ;
 node_255                           0               0                            ;
 node_256                           0    3.3327404234                            ;
 node_257                           0    3.3327404234                            ;
 node_258                           0    3.3327404234                            ;
 node_259                           0               0                            ;
 node_260                           0               0                            ;
 node_261                           0    3.3327404234                            ;
 node_262                           0               0                            ;
 node_263                           0               0                            ;
 node_264                           0    11.779497042                            ;
 node_265                           0               0                            ;
 node_266                           0               0                            ;
 node_267                           0               0                            ;
 node_268                           0               0                            ;
 node_269                           0               0                            ;
 node_270                           0               0                            ;
 node_271                           0               0                            ;
 node_272                           0    17.342210347                            ;
 node_273                           0               0                            ;
 node_274                           0    1.3322131926                            ;
 node_275                           0               0                            ;
 node_276                           0    1.3322131926                            ;
 node_277                           0    17.753340333                            ;
 node_278                           0               0                            ;
 node_279                           0               0                            ;
 node_280                           0    37.823958774                            ;
 node_281                           0               0                            ;
 node_282                           0    1.3322131926                            ;
 node_283                           0    3.3327404234                            ;
 node_284                           0               0                            ;
 node_285                           0               0                            ;
 node_286                           0     27.86340046                            ;
 node_287                           0               0                            ;
 node_288                           0    13.978419547                            ;
 node_289                           0               0                            ;
 node_290                           0               0                            ;
 node_291                           0               0                            ;
 node_292                           0    11.020419383                            ;
 node_293                           0               0                            ;
 node_294                           0    11.445513825                            ;
 node_295                           0    11.445513825                            ;
 node_296                           0     57.24050678                            ;
 node_297                           0               0                            ;
 node_298                           0               0                            ;
 node_299                           0               0                            ;
 node_300                           0               0                            ;
 node_301                           0               0                            ;
 node_302                           0    14.426924987                            ;
 node_303                           0    14.426924987                            ;
 node_304                           0               0                            ;
 node_305                           0               0                            ;
 node_306                           0               0                            ;
 node_307                           0               0                            ;
 node_308                           0               0                            ;
 node_309                           0     38.23508876                            ;
 node_310                           0               0                            ;
 node_311                           0               0                            ;
 node_312                           0               0                            ;
 node_313                           0               0                            ;
 node_314                           0    8.2693190501                            ;
 node_315                           0     11.43688872                            ;
 node_316                           0     20.49109229                            ;
 node_317                           0     20.49109229                            ;
 node_318                           0               0                            ;
 node_319                           0     20.49109229                            ;
 node_320                           0               0                            ;
 node_321                           0               0                            ;
 node_322                           0               0                            ;
 node_323                           0               0                            ;
 node_324                           0               0                            ;
 node_325                           0               0                            ;
 node_326                           0    3.3327404234                            ;
 node_327                           0               0                            ;
 node_328                           0    3.3327404234                            ;
 node_329                           0    3.3327404234                            ;
 node_330                           0               0                            ;
 node_331                           0     11.43688872                            ;
 node_332                           0     11.43688872                            ;
 node_333                           0    54.530786414                            ;
 node_334                           0    13.978419547                            ;
 node_335                           0    25.071454096                            ;
 node_336                           0               0                            ;
 node_337                           0    13.699802531                            ;
 node_338                           0               0                            ;
 node_339                           0               0                            ;
 node_340                           0               0                            ;
 node_341                           0               0                            ;
 node_342                           0    10.001671312                            ;
 node_343                           0               0                            ;
 node_344                           0               0                            ;
 node_345                           0               0                            ;
 node_346                           0               0                            ;
 node_347                           0               0                            ;
 node_348                           0               0                            ;
 node_349                           0    11.779497042                            ;
 node_350                           0    13.699802531                            ;
 node_351                           0               0                            ;
 node_352                           0               0                            ;
 node_353                           0               0                            ;
 node_354                           0               0                            ;
 node_355                           0    1.3322131926                            ;
 node_356                           0               0                            ;
 node_357                           0               0                            ;
 node_358                           0               0                            ;