[TITLE]


[JUNCTIONS]
;ID              	Elev        	Demand      	Pattern         
 3               	0           	0        	                	    ;
 4               	0         	  1      	                	;
 5               	0           	0           	                	;
 6               	0           	0           	                	;

[RESERVOIRS]
;ID              	Head        	Pattern         
 1               	300         	                	;

[TANKS]
;ID              	Elevation   	InitLevel   	MinLevel    	MaxLevel    	Diameter    	MinVol      	VolCurve        	Overflow

[PIPES]
;ID              	Node1           	Node2           	Length      	Diameter    	Roughness   	MinorLoss   	Status
 1               	1               	3               	18559.0       	12          	100         	0           	Open  	;
 2               	3               	4               	13123.0       	12          	100         	0           	Open  	;
 3               	1               	5               	9280.0        	50          	100         	0           	Open  	;
 4               	6               	4               	9280.0        	50          	100         	0           	Open  	;

[PUMPS]
;ID              	Node1           	Node2           	Parameters
 5               	5               	6               	HEAD 1	;

[VALVES]
;ID              	Node1           	Node2           	Diameter    	Type	Setting     	MinorLoss   

[TAGS]

[DEMANDS]
;Junction        	Demand      	Pattern         	Category

[STATUS]
;ID              	Status/Setting

[PATTERNS]
;ID              	Multipliers

[CURVES]
;ID              	X-Value     	Y-Value
;PUMP: PUMP: PUMP: 
 1               	0           	240         
 1               	6283        	150         
 1               	9424        	60          
 1               	10995       	0           

[CONTROLS]



[RULES]



[ENERGY]
 Global Efficiency  	75
 Global Price       	0
 Demand Charge      	0

[EMITTERS]
;Junction        	Coefficient

[QUALITY]
;Node            	InitQual

[SOURCES]
;Node            	Type        	Quality     	Pattern

[REACTIONS]
;Type     	Pipe/Tank       	Coefficient


[REACTIONS]
 Order Bulk            	1
 Order Tank            	1
 Order Wall            	1
 Global Bulk           	0
 Global Wall           	0
 Limiting Potential    	0
 Roughness Correlation 	0

[MIXING]
;Tank            	Model

[TIMES]
 Duration           	0:00 
 Hydraulic Timestep 	1:00 
 Quality Timestep   	0:05 
 Pattern Timestep   	1:00 
 Pattern Start      	0:00 
 Report Timestep    	1:00 
 Report Start       	0:00 
 Start ClockTime    	12 am
 Statistic          	NONE

[REPORT]
 Status             	No
 Summary            	No
 Page               	0

[OPTIONS]
 Units              	LPM
 Headloss           	H-W
 Specific Gravity   	1
 Viscosity          	1
 Trials             	40
 Accuracy           	0.001
 CHECKFREQ          	2
 MAXCHECK           	10
 DAMPLIMIT          	0
 Unbalanced         	Continue 10
 Pattern            	1
 Demand Multiplier  	1.0
 Demand Model       	PDA
 Minimum Pressure   	8
 Required Pressure  	25
 Pressure Exponent  	0.75
 Emitter Exponent   	0.5
 Quality            	None mg/L
 Diffusivity        	1
 Tolerance          	0.01

[COORDINATES]
;Node            	X-Coord           	Y-Coord
3               	-122.303          	37.772            
4               	-122.303          	37.772       
5               	-122.269          	37.783            
6               	-122.265          	37.780            
1               	-122.276          	37.792            

[VERTICES]
;Link            	X-Coord           	Y-Coord

[LABELS]
;X-Coord             Y-Coord             Label & Anchor Node

[BACKDROP]
  DIMENSIONS  	0.000             	0.000             	10000.000         	10000.000         
 UNITS          	None
 FILE           	
 OFFSET         	0.00            	0.00            

[END]
